##############################################################################
###        CIF file generated by CrysFML         (version: May 2020)       ###
##############################################################################
 
 
_audit_creation_date Date: 25/06/2020  Time: 09:47:49.338
_audit_creation_method  'CrysFML' 
 
 
#=============================================================================
data_global
#=============================================================================
 
# SUBMISSION DETAILS
 
_publ_contact_author_name            ?   # Name of author for correspondence
_publ_contact_author_address             # Address of author for correspondence
; ?
;
_publ_contact_author_email           ?
_publ_contact_author_fax             ?
_publ_contact_author_phone           ?
 
_publ_contact_letter
; ?
;
 
_publ_requested_journal              ?
_publ_requested_coeditor_name        ?
_publ_requested_category             ?
#==============================================================================
 
# TITLE AND AUTHOR LIST
 
_publ_section_title
; ?
;
_publ_section_title_footnote
;
;
 
# The loop structure below should contain the names and addresses of all 
# authors, in the required order of publication. Repeat as necessary.
 
loop_
    _publ_author_name
    _publ_author_footnote
    _publ_author_address
?                                   #<--'Last name, first name' 
; ?
;
; ?
;
 
#==============================================================================
 
# TEXT
 
_publ_section_synopsis
;  ?
;
_publ_section_abstract
; ?
;          
_publ_section_comment
; ?
;
_publ_section_exptl_prep      # Details of the preparation of the sample(s)
                              # should be given here. 
; ?
;
_publ_section_exptl_refinement
; ?
;
_publ_section_references
; ?
;
_publ_section_figure_captions
; ?
;
_publ_section_acknowledgements
; ?
;
 
#=============================================================================
 
#=============================================================================
# If more than one structure is reported, the remaining sections should be 
# completed per structure. For each data set, replace the '?' in the
# data_? line below by a unique identifier.
 
data_Testing WriteCIF
 
# CHEMICAL DATA
 
_chemical_name_systematic
; ?
;
_chemical_name_common             ?
_chemical_formula_moiety          ?
_chemical_formula_structural      ?
_chemical_formula_analytical      ?
_chemical_formula_iupac           ?
_chemical_formula_sum             ?
_chemical_formula_weight          ?
_chemical_melting_point           ?
_chemical_compound_source         ?       # for minerals and 
                                          # natural products
 
loop_
    _atom_type_symbol               
    _atom_type_description          
    _atom_type_scat_dispersion_real 
    _atom_type_scat_dispersion_imag 
    _atom_type_scat_source          
    _atom_type_scat_length_neutron       # include if applicable
    ?    ?    ?    ?    ?      ?    
 
#=============================================================================
 
# 6. CRYSTAL DATA
 
_space_group_crystal_system        ?
_space_group_name_H-M_alt         ?
_space_group_name_Hall            ?
loop_
    _space_group_symop_operation_xyz
'x,y,z,t,u,1'
'-x+1/2,-y,z+1/2,-t+1/2,u,1'
'-x,y+1/2,-z+1/2,-t+1/2,-u+1/2,-1'
'x+1/2,-y+1/2,-z,t,-u+1/2,-1'
 
_cell_length_a     6.64800
_cell_length_b     7.37080
_cell_length_c     9.10870
_cell_angle_alpha  90.00000
_cell_angle_beta   90.00000
_cell_angle_gamma  90.00000
_cell_volume        446.3362
 
_cell_measurement_temperature        ?
_cell_special_details
; ?
;
 
#=============================================================================
 
# ATOMIC COORDINATES AND DISPLACEMENT PARAMETERS
 
loop_
    _atom_site_label
    _atom_site_type_symbol
    _atom_site_fract_x
    _atom_site_fract_y
    _atom_site_fract_z
    _atom_site_U_iso_or_equiv
    _atom_site_occupancy
    _atom_site_adp_type
    _atom_site_type_symbol
    _atom_site_symmetry_multiplicity
